/*--------------------------------*- C++ -*----------------------------------*\
| =========                 |                                                 |
| \\      /  F ield         | OpenFOAM: The Open Source CFD Toolbox           |
|  \\    /   O peration     | Version:  v1906                                 |
|   \\  /    A nd           | Web:      www.OpenFOAM.com                      |
|    \\/     M anipulation  |                                                 |
\*---------------------------------------------------------------------------*/
FoamFile
{
    version     2.0;
    format      ascii;
    class       volVectorField;
    object      U;
}
// * * * * * * * * * * * * * * * * * * * * * * * * * * * * * * * * * * * * * //

dimensions      [0 1 -1 0 0 0 0];

internalField   uniform (1 0 0);

boundaryField
{
    zeroGradPlanes
    {
	type		zeroGradient;       
    }

    plate
    {
        type            noSlip;
    }
    inlet 
    {
        type            fixedValue;
	    value		    uniform (1 0 0);
    }
    //rightSide 
    //{
    //    type            zeroGradient;
    //}
    frontAndBack
    {
        type            empty;
    }
}

// ************************************************************************* //
