/*--------------------------------*- C++ -*----------------------------------*\
| =========                 |                                                 |
| \\      /  F ield         | OpenFOAM: The Open Source CFD Toolbox           |
|  \\    /   O peration     | Version:  v1906                                 |
|   \\  /    A nd           | Web:      www.OpenFOAM.com                      |
|    \\/     M anipulation  |                                                 |
\*---------------------------------------------------------------------------*/
FoamFile
{
    version     2.0;
    format      ascii;
    class       volScalarField;
    location    "0";
    object      p;
}
// * * * * * * * * * * * * * * * * * * * * * * * * * * * * * * * * * * * * * //

dimensions      [1 -1 -2 0 0 0 0];


internalField   uniform 101325;

boundaryField
{
    floor
    {
        type            calculated;
        value           uniform 101325;
    }
    ceiling
    {
        type            calculated;
        value           uniform 101325;
    }
    inlet
    {
        type            calculated;
        value           uniform 101325;
    }
    outlet
    {
        type            calculated;
        value           uniform 101325;
    }
    fixedWalls
    {
        type            empty;
    }
    baffleFacesThermoBaffle1D_master
    {
        type            calculated;
        value           uniform 101325;
    }
    baffleFacesThermoBaffle1D_slave
    {
        type            calculated;
        value           uniform 101325;
    }
    baffleFacesThermoBaffle3D_master
    {
        type            calculated;
        value           uniform 101325;
    }
    baffleFacesThermoBaffle3D_slave
    {
        type            calculated;
        value           uniform 101325;
    }
}


// ************************************************************************* //
