/*--------------------------------*- C++ -*----------------------------------*\
| =========                 |                                                 |
| \\      /  F ield         | OpenFOAM: The Open Source CFD Toolbox           |
|  \\    /   O peration     | Version:  v1906                                 |
|   \\  /    A nd           | Web:      www.OpenFOAM.com                      |
|    \\/     M anipulation  |                                                 |
\*---------------------------------------------------------------------------*/
FoamFile
{
    version     2.0;
    format      ascii;
    class       polyBoundaryMesh;
    location    "constant/polyMesh";
    object      boundary;
}
// * * * * * * * * * * * * * * * * * * * * * * * * * * * * * * * * * * * * * //

6
(
    inlet
    {
        type            patch;
        nFaces          7500;
        startFace       438500;
    }
    outlet
    {
        type            patch;
        nFaces          7500;
        startFace       446000;
    }
    wall
    {
        type            patch;
        nFaces          1000;
        startFace       453500;
    }
    wedgeRight
    {
        type            cyclic;
        inGroups        1(cyclic);
        nFaces          3000;
        startFace       454500;
        matchTolerance  0.0001;
        transform       unknown;
        neighbourPatch  wedgeLeft;
    }
    wedgeLeft
    {
        type            cyclic;
        inGroups        1(cyclic);
        nFaces          3000;
        startFace       457500;
        matchTolerance  0.0001;
        transform       unknown;
        neighbourPatch  wedgeRight;
    }
    defaultFaces
    {
        type            empty;
        inGroups        1(empty);
        nFaces          0;
        startFace       460500;
    }
)

// ************************************************************************* //
